Version 4
SHEET 1 13280 8692
WIRE 4288 2272 3344 2272
WIRE 4736 2320 4736 2288
WIRE 3344 2384 3344 2272
WIRE 3392 2384 3344 2384
WIRE 3520 2384 3472 2384
WIRE 3584 2384 3520 2384
WIRE 3808 2384 3664 2384
WIRE 4736 2432 4736 2400
WIRE 3616 2544 3616 2480
WIRE 3808 2544 3808 2384
WIRE 3888 2544 3808 2544
WIRE 3984 2544 3968 2544
WIRE 4096 2544 3984 2544
WIRE 4240 2544 4176 2544
WIRE 3520 2608 3520 2384
WIRE 3584 2608 3520 2608
WIRE 3808 2608 3808 2544
WIRE 3808 2608 3744 2608
WIRE 4032 2624 4032 2576
WIRE 4128 2624 4032 2624
WIRE 4032 2640 4032 2624
WIRE 3984 2656 3984 2544
WIRE 4016 2656 3984 2656
WIRE 3584 2672 3520 2672
WIRE 3808 2672 3744 2672
WIRE 4240 2672 4240 2544
WIRE 4240 2672 4080 2672
WIRE 4288 2672 4288 2272
WIRE 4288 2672 4240 2672
WIRE 4368 2672 4368 2624
WIRE 4368 2672 4288 2672
WIRE 4416 2672 4368 2672
WIRE 4544 2672 4496 2672
WIRE 4608 2672 4608 2624
WIRE 4608 2672 4544 2672
WIRE 4720 2672 4608 2672
WIRE 4912 2672 4912 2624
WIRE 4912 2672 4800 2672
WIRE 5184 2672 5104 2672
WIRE 5296 2672 5184 2672
WIRE 4016 2688 3920 2688
WIRE 4064 2720 4064 2704
WIRE 4128 2720 4128 2624
WIRE 4128 2720 4064 2720
WIRE 3648 2752 3648 2736
WIRE 3696 2752 3648 2752
WIRE 3872 2752 3872 2704
WIRE 3872 2752 3696 2752
WIRE 3920 2752 3920 2688
WIRE 3920 2752 3872 2752
WIRE 4032 2752 4032 2704
WIRE 3696 2768 3696 2752
WIRE 5184 2768 5184 2672
WIRE 3616 2784 3616 2736
WIRE 5296 2784 5296 2672
WIRE 4912 2816 4912 2672
WIRE 3696 2880 3696 2832
WIRE 4672 2896 4672 2832
WIRE 3392 2960 3344 2960
WIRE 3520 2960 3520 2672
WIRE 3520 2960 3472 2960
WIRE 3600 2960 3520 2960
WIRE 3808 2960 3808 2672
WIRE 3808 2960 3680 2960
WIRE 4912 2976 4912 2880
WIRE 5184 2976 5184 2848
WIRE 5296 2976 5296 2848
WIRE 3344 3072 3344 2960
WIRE 4544 3072 4544 2672
WIRE 4544 3072 3344 3072
FLAG 4736 2432 0
FLAG 4736 2288 COM
FLAG 3616 2480 COM
FLAG 3616 2784 0
FLAG 3696 2880 0
FLAG 4912 2976 0
FLAG 4912 2624 ANT
FLAG 4608 2624 TANK_IN
FLAG 4672 2832 COM
FLAG 4032 2576 COM
FLAG 4032 2752 0
FLAG 5184 2976 0
FLAG 5296 2976 0
FLAG 4368 2624 DRIVE
FLAG 3872 2704 DIFF
SYMBOL voltage 4736 2304 R0
WINDOW 123 0 0 Left 2
WINDOW 39 0 0 Left 2
SYMATTR InstName V2
SYMATTR Value 3.3V
SYMBOL cap 3680 2768 R0
SYMATTR InstName C4
SYMATTR Value 0.1µ
SYMBOL res 3680 2368 R90
WINDOW 0 0 56 VBottom 2
WINDOW 3 32 56 VTop 2
SYMATTR InstName R4
SYMATTR Value 2.4k
SYMBOL res 3696 2944 R90
WINDOW 0 0 56 VBottom 2
WINDOW 3 32 56 VTop 2
SYMATTR InstName R5
SYMATTR Value 2.4k
SYMBOL res 3488 2368 R90
WINDOW 0 0 56 VBottom 2
WINDOW 3 32 56 VTop 2
SYMATTR InstName R6
SYMATTR Value 110
SYMBOL res 3488 2944 R90
WINDOW 0 0 56 VBottom 2
WINDOW 3 32 56 VTop 2
SYMATTR InstName R7
SYMATTR Value 110
SYMBOL ind 4704 2688 R270
WINDOW 0 32 56 VTop 2
WINDOW 3 5 56 VBottom 2
SYMATTR InstName L1
SYMATTR Value 2700µH
SYMATTR SpiceLine Rser=120 Cpar=1.2pF
SYMBOL cap 4896 2816 R0
SYMATTR InstName C_ant
SYMATTR Value 10pF
SYMBOL res 4688 2880 M0
WINDOW 0 36 40 Left 2
WINDOW 3 36 76 Left 2
SYMATTR InstName R8
SYMATTR Value 10k
SYMBOL res 4512 2656 R90
WINDOW 0 0 56 VBottom 2
WINDOW 3 32 56 VTop 2
SYMATTR InstName R9
SYMATTR Value 10
SYMBOL ad8132 3616 2640 R0
SYMATTR InstName U1
SYMBOL res 3984 2528 R90
WINDOW 0 0 56 VBottom 2
WINDOW 3 32 56 VTop 2
SYMATTR InstName R10
SYMATTR Value 1k
SYMBOL res 4192 2528 R90
WINDOW 0 0 56 VBottom 2
WINDOW 3 32 56 VTop 2
SYMATTR InstName R11
SYMATTR Value 3k
SYMBOL Opamps\\ADA4807-1 4048 2672 R0
SYMATTR InstName U2
SYMBOL res 5200 2752 M0
WINDOW 0 36 40 Left 2
WINDOW 3 36 76 Left 2
SYMATTR InstName R1
SYMATTR Value 22k
SYMBOL cap 5280 2784 R0
SYMATTR InstName C2
SYMATTR Value 330pF
TEXT 4896 2352 Left 2 !.tran 0 5m 0.001u 1n
TEXT 4656 2736 Left 2 !.ic I(L1)=0.001u
