Version 4
SHEET 1 9460 8692
WIRE -288 64 -448 64
WIRE 288 64 -208 64
WIRE -448 176 -448 64
WIRE -288 176 -448 176
WIRE -112 176 -208 176
WIRE 944 176 944 144
WIRE 480 224 480 176
WIRE 480 224 368 224
WIRE 368 256 368 224
WIRE 480 256 480 224
WIRE -352 288 -352 240
WIRE -192 288 -352 288
WIRE 944 288 944 256
WIRE -352 304 -352 288
WIRE -448 352 -448 176
WIRE -384 352 -448 352
WIRE -112 384 -112 176
WIRE -112 384 -240 384
WIRE 96 384 96 352
WIRE 96 384 -112 384
WIRE 160 384 96 384
WIRE 288 384 288 64
WIRE 288 384 240 384
WIRE 368 384 368 320
WIRE 368 384 288 384
WIRE 480 384 480 320
WIRE 480 384 368 384
WIRE 624 384 480 384
WIRE 784 384 784 352
WIRE 784 384 704 384
WIRE 944 384 864 384
WIRE 1088 384 944 384
WIRE -384 416 -448 416
WIRE 1088 416 1088 384
WIRE 784 432 784 384
WIRE 944 432 944 384
WIRE 368 448 368 384
WIRE 480 448 480 384
WIRE -304 480 -304 464
WIRE -192 480 -192 288
WIRE -192 480 -304 480
WIRE -352 512 -352 464
WIRE 368 544 368 512
WIRE 480 544 480 512
WIRE 480 544 368 544
WIRE 784 560 784 496
WIRE 944 560 944 496
WIRE 1088 560 1088 496
WIRE -448 576 -448 416
WIRE -320 576 -448 576
WIRE -144 576 -240 576
WIRE 480 576 480 544
WIRE -64 592 -64 512
WIRE -448 720 -448 576
WIRE -384 720 -448 720
WIRE -240 720 -320 720
WIRE -144 720 -144 576
WIRE -144 720 -176 720
WIRE -64 720 -64 672
WIRE -64 720 -144 720
WIRE 0 720 -64 720
WIRE 960 736 800 736
WIRE -64 752 -64 720
WIRE 0 768 0 720
WIRE -448 848 -448 720
WIRE -384 848 -448 848
WIRE -240 848 -320 848
WIRE -144 848 -144 720
WIRE -144 848 -176 848
WIRE 880 848 880 784
WIRE 800 864 800 736
WIRE 848 864 800 864
WIRE 960 880 960 736
WIRE 960 880 912 880
WIRE 1120 880 960 880
WIRE -64 896 -64 832
WIRE 0 896 0 832
WIRE 96 896 96 384
WIRE 848 896 96 896
WIRE 880 960 880 912
WIRE -448 976 -448 848
WIRE -304 976 -448 976
WIRE 96 976 96 896
WIRE 96 976 -224 976
WIRE 464 3760 464 3728
WIRE 576 3760 464 3760
WIRE 464 3808 464 3760
WIRE 688 3808 688 3600
WIRE 576 3856 576 3760
WIRE 576 3856 528 3856
WIRE 624 3856 576 3856
WIRE 464 3936 464 3904
WIRE 688 3936 688 3904
WIRE 464 4032 464 4016
WIRE 688 4032 688 4016
FLAG 944 288 0
FLAG 944 144 COM
FLAG 688 4032 0
FLAG 464 4032 0
FLAG -352 240 COM
FLAG -352 512 0
FLAG 784 560 0
FLAG 784 352 ANT
FLAG 96 352 DRIVE
FLAG 944 560 0
FLAG 1088 560 0
FLAG 880 784 COM
FLAG 880 960 0
FLAG 1120 880 OUT
FLAG 480 576 0
FLAG 480 176 COM
FLAG -64 512 COM
FLAG -64 896 0
FLAG 0 896 0
SYMBOL voltage 944 160 R0
WINDOW 123 0 0 Left 2
WINDOW 39 0 0 Left 2
SYMATTR InstName V2
SYMATTR Value 3.3V
SYMBOL npn 624 3808 R0
SYMATTR InstName Q29
SYMATTR Value 2N3904
SYMBOL npn 528 3808 M0
SYMATTR InstName Q30
SYMATTR Value 2N3904
SYMBOL res 704 3920 M0
WINDOW 0 36 40 Left 2
WINDOW 3 36 76 Left 2
SYMATTR InstName R39
SYMATTR Value 10
SYMBOL res 480 3920 M0
WINDOW 0 36 40 Left 2
WINDOW 3 36 76 Left 2
SYMATTR InstName R42
SYMATTR Value 100
SYMBOL res -192 192 M270
WINDOW 0 32 56 VTop 2
WINDOW 3 0 56 VBottom 2
SYMATTR InstName R3
SYMATTR Value 2200
SYMBOL res -192 80 M270
WINDOW 0 32 56 VTop 2
WINDOW 3 0 56 VBottom 2
SYMATTR InstName R1
SYMATTR Value 220
SYMBOL Opamps\\LT6200-10 -352 384 R0
SYMATTR InstName U1
SYMBOL res -224 592 M270
WINDOW 0 32 56 VTop 2
WINDOW 3 0 56 VBottom 2
SYMATTR InstName R4
SYMATTR Value 2200
SYMBOL res -208 992 M270
WINDOW 0 32 56 VTop 2
WINDOW 3 0 56 VBottom 2
SYMATTR InstName R2
SYMATTR Value 220
SYMBOL diode -384 736 R270
WINDOW 0 32 32 VTop 2
WINDOW 3 0 32 VBottom 2
SYMATTR InstName D23
SYMATTR Value BAS216
SYMBOL diode -320 832 R90
WINDOW 0 0 32 VBottom 2
WINDOW 3 32 32 VTop 2
SYMATTR InstName D24
SYMATTR Value BAS216
SYMBOL ind 608 400 R270
WINDOW 0 32 56 VTop 2
WINDOW 3 5 56 VBottom 2
SYMATTR InstName L1
SYMATTR Value 2.7mH
SYMATTR SpiceLine Rser=120 Cpar=1.2pF
SYMBOL cap 768 432 R0
SYMATTR InstName C_ant
SYMATTR Value 8pF
SYMBOL res 256 400 M270
WINDOW 0 32 56 VTop 2
WINDOW 3 0 56 VBottom 2
SYMATTR InstName R_sense
SYMATTR Value 22
SYMBOL cap 928 432 R0
SYMATTR InstName C_touch
SYMATTR Value 330pF
SYMBOL res 1072 512 M180
WINDOW 0 36 76 Left 2
WINDOW 3 36 40 Left 2
SYMATTR InstName R_touch
SYMATTR Value 150k
SYMBOL diode -240 736 R270
WINDOW 0 32 32 VTop 2
WINDOW 3 0 32 VBottom 2
SYMATTR InstName D1
SYMATTR Value BAS216
SYMBOL diode -176 832 R90
WINDOW 0 0 32 VBottom 2
WINDOW 3 32 32 VTop 2
SYMATTR InstName D2
SYMATTR Value BAS216
SYMBOL ad8651 880 816 R0
SYMATTR InstName U2
SYMBOL diode 496 320 R180
WINDOW 0 24 64 Left 2
WINDOW 3 24 0 Left 2
SYMATTR InstName D3
SYMBOL diode 496 512 R180
WINDOW 0 24 64 Left 2
WINDOW 3 24 0 Left 2
SYMATTR InstName D4
SYMBOL cap 352 256 R0
SYMATTR InstName C1
SYMATTR Value 0.5pF
SYMBOL cap 352 448 R0
SYMATTR InstName C2
SYMATTR Value 0.5pF
SYMBOL res -48 736 M0
WINDOW 0 36 40 Left 2
WINDOW 3 36 76 Left 2
SYMATTR InstName R6
SYMATTR Value 220
SYMBOL res -48 576 M0
WINDOW 0 36 40 Left 2
WINDOW 3 36 76 Left 2
SYMATTR InstName R5
SYMATTR Value 220
SYMBOL cap -16 768 R0
SYMATTR InstName C3
SYMATTR Value 0.1µF
TEXT 184 960 Left 2 !.tran 0 5m 0.001m 0.001u
TEXT 184 1008 Left 2 !.ic I(L1)=0.0001u
TEXT 816 704 Left 2 ;output buffer
TEXT 336 152 Left 2 ;ESD protection diodes
TEXT 80 32 Left 4 ;Current sensing Theremin oscillator
TEXT 952 352 Left 2 ;touch simulation
TEXT -312 784 Left 2 ;Limiter
